// -*- C++ -*-
// File generated by PyFoam - sorry for the ugliness

FoamFile
{
 class dictionary;
 format ascii;
 object decomposeParDict;
 version 2.0;
}

method scotch;

numberOfSubdomains 16;
