/*--------------------------------*- C++ -*----------------------------------*\
| =========                 |                                                 |
| \\      /  F ield         | OpenFOAM: The Open Source CFD Toolbox           |
|  \\    /   O peration     | Version:  2.3.0                                 |
|   \\  /    A nd           | Web:      www.OpenFOAM.org                      |
|    \\/     M anipulation  |                                                 |
\*---------------------------------------------------------------------------*/
FoamFile
{
    version     2.0;
    format      ascii;
    class       dictionary;
    location    "system";
    object      sampleDict;
}
// * * * * * * * * * * * * * * * * * * * * * * * * * * * * * * * * * * * * * //

setFormat csv;
surfaceFormat raw;
fields
(
    U
);
sets
(
	somePoints
	{
	    type    cloud;
	    axis    xyz;
	    points  ((0 0 0) (10 0 0) (10 8 0) (0 8 0) (0 8 0.5) (0 0 0.5) (10 0 0.5) (10 8 0.5) (0 8 3) (0 0 3) (10 0 3) (10 8 3) (0 8 3.5) (0 0 3.5) (10 0 3.5) (10 8 3.5) (10 8 0.55) (10 0 0.55) (0 0 0.55) (0 8 0.55) (0 8 3.05) (10 8 3.05) (10 0 3.05) (0 0 3.05) (2.3 1.6 0.55) (2.3 6.4 0.55) (2.3 2.4 0.55) (3.1 1.6 0.55) (3.1 2.4 0.55) (2.3 1.6 2.25) (3.1 1.6 2.25) (2.3 2.4 2.25) (3.1 2.4 2.25) (3.9 1.6 2.25) (3.9 2.4 2.25) (3.9 1.6 0.55) (3.9 2.4 0.55) (5.5 1.6 0.55) (5.5 2.4 0.55) (4.7 2.4 0.55) (5.5 2.4 2.25) (4.7 1.6 0.55) (5.5 1.6 2.25) (4.7 1.6 2.25) (4.7 2.4 2.25) (7.9 1.6 0.55) (7.9 2.4 0.55) (7.9 1.6 2.25) (7.9 2.4 2.25) (7.1 1.6 0.55) (7.1 2.4 0.55) (7.1 2.4 2.25) (7.1 1.6 2.25) (6.3 1.6 2.25) (6.3 2.4 2.25) (6.3 1.6 0.55) (6.3 2.4 0.55) (7.9 6.4 0.55) (7.1 6.4 0.55) (6.3 6.4 0.55) (5.5 6.4 0.55) (4.7 6.4 0.55) (3.9 6.4 0.55) (3.1 6.4 0.55) (2.3 6.4 2.25) (3.1 6.4 2.25) (3.9 6.4 2.25) (4.7 6.4 2.25) (5.5 6.4 2.25) (6.3 6.4 2.25) (7.1 6.4 2.25) (7.9 6.4 2.25) (7.9 5.6 0.55) (7.1 5.6 0.55) (6.3 5.6 0.55) (5.5 5.6 0.55) (4.7 5.6 0.55) (3.9 5.6 0.55) (3.1 5.6 0.55) (2.3 5.6 0.55) (2.3 5.6 2.25) (3.1 5.6 2.25) (3.9 5.6 2.25) (4.7 5.6 2.25) (5.5 5.6 2.25) (6.3 5.6 2.25) (7.1 5.6 2.25) (7.9 5.6 2.25) (2.3 3.2 0.55) (7.9 3.2 0.55) (7.9 4.8 0.55) (2.3 4.8 0.55) (2.3 4.8 0.5) (2.3 5.6 0.5) (7.9 4.8 0.5) (3.1 5.6 0.5) (3.9 5.6 0.5) (4.7 5.6 0.5) (5.5 5.6 0.5) (6.3 5.6 0.5) (7.1 5.6 0.5) (7.9 5.6 0.5) (7.9 3.2 0.5) (7.9 2.4 0.5) (2.3 3.2 0.5) (7.1 2.4 0.5) (6.3 2.4 0.5) (5.5 2.4 0.5) (4.7 2.4 0.5) (3.9 2.4 0.5) (3.1 2.4 0.5) (2.3 2.4 0.5) (9 2.5 0.55) (10 2.5 0.55) (10 5.5 0.55) (9 5.5 0.55) (10 2.5 0.5) (9 2.5 0.5) (9 5.5 0.5) (10 5.5 0.5) (9 2.5 3) (10 2.5 3) (10 5.5 3) (9 5.5 3) (9 2.5 2.25) (10 2.5 2.25) (10 5.5 2.25) (9 5.5 2.25) (0 0 2.25) (0 8 2.25) (10 8 2.25) (10 0 2.25) (9 5.5 3.05) (9 2.5 3.05) (10 2.5 3.05) (10 5.5 3.05) (10 5.5 3.5) (10 2.5 3.5) (9 2.5 3.5) (9 5.5 3.5) (2.3 1.6 3) (3.1 1.6 3) (3.9 1.6 3) (4.7 1.6 3) (5.5 1.6 3) (6.3 1.6 3) (7.1 1.6 3) (7.9 1.6 3) (7.9 2.4 3) (7.1 2.4 3) (6.3 2.4 3) (5.5 2.4 3) (4.7 2.4 3) (3.9 2.4 3) (3.1 2.4 3) (2.3 2.4 3) (2.3 5.6 3) (2.3 6.4 3) (3.1 6.4 3) (3.9 6.4 3) (4.7 6.4 3) (5.5 6.4 3) (6.3 6.4 3) (7.1 6.4 3) (7.9 6.4 3) (7.9 5.6 3) (7.1 5.6 3) (6.3 5.6 3) (5.5 5.6 3) (4.7 5.6 3) (3.9 5.6 3) (3.1 5.6 3) (2.3 0.8 3) (7.9 0.8 3) (7.9 0.8 3.05) (2.3 0.8 3.05) (2.3 1.6 3.05) (3.1 1.6 3.05) (3.9 1.6 3.05) (4.7 1.6 3.05) (5.5 1.6 3.05) (6.3 1.6 3.05) (7.1 1.6 3.05) (7.9 1.6 3.05) (2.3 7.2 3) (3.1 7.2 3) (3.9 7.2 3) (4.7 7.2 3) (5.5 7.2 3) (6.3 7.2 3) (7.1 7.2 3) (7.9 7.2 3) (7.9 6.4 3.05) (2.3 6.4 3.05) (2.3 7.2 3.05) (3.1 7.2 3.05) (3.9 7.2 3.05) (4.7 7.2 3.05) (5.5 7.2 3.05) (6.3 7.2 3.05) (7.1 7.2 3.05) (7.9 7.2 3.05) (0 2.5 0.55) (1 2.5 0.55) (1 2.5 0.5) (0 2.5 0.5) (0 5.5 0.55) (0 5.5 0.5) (0 2.5 2.25) (1 2.5 2.25) (1 5.5 0.5) (1 5.5 0.55) (0 5.5 2.25) (1 5.5 2.25) (1 5.5 3) (0 2.5 3) (1 2.5 3) (0 2.5 3.05) (1 2.5 3.05) (0 5.5 3.05) (0 5.5 3) (0 2.5 3.5) (1 2.5 3.5) (0 5.5 3.5) (1 5.5 3.5) (1 5.5 3.05) );
	}
);
interpolationScheme cellPoint;
