/*--------------------------------*- C++ -*----------------------------------*\
| =========                 |                                                 |
| \\      /  F ield         | OpenFOAM: The Open Source CFD Toolbox           |
|  \\    /   O peration     | Version:  2.3.0                                 |
|   \\  /    A nd           | Web:      www.OpenFOAM.org                      |
|    \\/     M anipulation  |                                                 |
\*---------------------------------------------------------------------------*/
FoamFile
{
    version     2.0;
    format      ascii;
    class       volScalarField;
    location    "0";
    object      epsilon;
}
// * * * * * * * * * * * * * * * * * * * * * * * * * * * * * * * * * * * * * //

dimensions      [0 2 -3 0 0 0 0];

internalField   uniform 0.01;

boundaryField
{

    inlet_crack1
    {
        type turbulentMixingLengthDissipationRateInlet;
        mixingLength 0.20; // 200 mm
        value uniform 200; // placeholder
    }

    outlet_crack1
    {
        type            zeroGradient;
    }

    inlet_crack2
    {
        type turbulentMixingLengthDissipationRateInlet;
        mixingLength 0.20; // 200 mm
        value uniform 200; // placeholder
    }

    outlet_crack2
    {
        type            zeroGradient;
    }

    outlet_rack_left
    {
        type            zeroGradient;
    }

    inlet_rack_left
    {
        type turbulentMixingLengthDissipationRateInlet;
        mixingLength 0.05; // 50 mm
        value uniform 200; // placeholder
    }

    outlet_rack_right
    {
        type            zeroGradient;
    }

    inlet_rack_right
    {
        type turbulentMixingLengthDissipationRateInlet;
        mixingLength 0.05; // 50 mm
        value uniform 200; // placeholder
    }

    defaultFaces
    {
        type            epsilonWallFunction;
        value           uniform 0.01;
    }

}


// ************************************************************************* //
