/*--------------------------------*- C++ -*----------------------------------*\
| =========                 |                                                 |
| \\      /  F ield         | OpenFOAM: The Open Source CFD Toolbox           |
|  \\    /   O peration     | Version:  2.3.0                                 |
|   \\  /    A nd           | Web:      www.OpenFOAM.org                      |
|    \\/     M anipulation  |                                                 |
\*---------------------------------------------------------------------------*/
FoamFile
{
    version     2.0;
    format      ascii;
    class       volScalarField;
    location    "0";
    object      k;
}
// * * * * * * * * * * * * * * * * * * * * * * * * * * * * * * * * * * * * * //

dimensions      [0 2 -2 0 0 0 0];

internalField   uniform 3.375e-2;

boundaryField
{
    inlet_crack1
    {
        type turbulentIntensityKineticEnergyInlet;
        intensity 0.05;
        value uniform 1; // placeholder
    }

    outlet_crack1
    {
        type            zeroGradient;
    }

    inlet_crack2
    {
        type turbulentIntensityKineticEnergyInlet;
        intensity 0.05;
        value uniform 1; // placeholder
    }

    outlet_crack2
    {
        type            zeroGradient;
    }

    outlet_rack_left
    {
        type            zeroGradient;
    }

    inlet_rack_left
    {
        type turbulentIntensityKineticEnergyInlet;
        intensity 0.05;
        value uniform 1; // placeholder
    }

    outlet_rack_right
    {
        type            zeroGradient;
    }

    inlet_rack_right
    {
        type turbulentIntensityKineticEnergyInlet;
        intensity 0.05;
        value uniform 1; // placeholder
    }

    defaultFaces
    {
        type            kqRWallFunction;
        value           uniform 3.375e-2;
    }

}


// ************************************************************************* //
