/*--------------------------------*- C++ -*----------------------------------*\
| =========                 |                                                 |
| \\      /  F ield         | OpenFOAM: The Open Source CFD Toolbox           |
|  \\    /   O peration     | Version:  2.3.0                                 |
|   \\  /    A nd           | Web:      www.OpenFOAM.org                      |
|    \\/     M anipulation  |                                                 |
\*---------------------------------------------------------------------------*/
FoamFile
{
    version     2.0;
    format      ascii;
    class       volScalarField;
    location    "0";
    object      nut;
}
// * * * * * * * * * * * * * * * * * * * * * * * * * * * * * * * * * * * * * //

dimensions      [0 2 -1 0 0 0 0];

internalField   uniform 0;

boundaryField
{
    inlet_crack1
    {
       type            nutkWallFunction;
       value           uniform 0;
    }

    outlet_crack1
    {
       type            nutkWallFunction;
       value           uniform 0;
    }

    inlet_crack2
    {
       type            nutkWallFunction;
       value           uniform 0;
    }

    outlet_crack2
    {
       type            nutkWallFunction;
       value           uniform 0;
    }

    outlet_rack_left
    {
       type            nutkWallFunction;
       value           uniform 0;
    }

    inlet_rack_left
    {
       type            nutkWallFunction;
       value           uniform 0;
    }

    outlet_rack_right
    {
       type            nutkWallFunction;
       value           uniform 0;
    }

    inlet_rack_right
    {
       type            nutkWallFunction;
       value           uniform 0;
    }

    defaultFaces
    {
        type            nutkWallFunction;
        value           uniform 0;
    }

}


// ************************************************************************* //
